previews/PR357/tutorials/outputs/psse/export_5_11/export_5_11.raw
0, 100.0, 33, 0, 1, 60.0
export_1_1
PSS/E 33.3 RAW via PowerFlows.jl, 2026-04-20T17:16:33.942
1, 'bus1', 230.0, 2, 1, 1, , 1.07762, 1.940389427782163, 1.1, 0.9, , 
2, 'bus2', 230.0, 1, 1, 1, , 1.091757747575956, -1.0846887809667314, 1.1, 0.9, , 
3, 'bus3', 230.0, 2, 1, 1, , 1.1, -0.9823116298956254, 1.1, 0.9, , 
4, 'bus4', 230.0, 3, 1, 1, , 1.06414, 0.0, 1.1, 0.9, , 
10, 'bus5', 230.0, 2, 1, 1, , 1.06907, 3.0977794590448515, 1.1, 0.9, , 
0
2, '1', 1, 1, 1, 240.6680945827443, 98.61, , , , , , 1, 0
3, '1', 1, 1, 1, 240.6680945827443, 98.61, , , , , , 1, 0
4, '1', 1, 1, 1, 320.8907927769924, 131.47, , , , , , 1, 0
0
0
1, '1', -0.0, 30.0, 30.0, -30.0, 1.07762, , 100.0, , , , , , 1, , 40.0, 0.0, , , , , , , , , , 
1, '2', -0.0, 127.49999999999999, 127.49999999999999, -127.49999999999999, 1.07762, , 100.0, , , , , , 1, , 170.0, 0.0, , , , , , , , , , 
3, '1', 37.95217596, 0.0, 0.0, 0.0, 1.1, , 100.0, , , , , , 1, , 60.0, 0.0, , , , , , , , , , 
3, '2', -0.0, 390.0, 390.0, -390.0, 1.1, , 100.0, , , , , , 1, , 520.0, 0.0, , , , , , , , , , 
4, '1', -0.0, -10.802, 150.0, -150.0, 1.06414, , 100.0, , , , , , 1, , 200.0, 0.0, , , , , , , , , , 
10, '1', 532.8406319226409, -165.039, 450.0, -450.0, 1.06907, , 100.0, , , , , , 1, , 600.0, 0.0, , , , , , , , , , 
10, '2', 20.63747519295375, 0.0, 0.0, 0.0, 1.06907, , 100.0, , , , , , 1, , 60.0, 0.0, , , , , , , , , , 
0
1, 2, '_1', 0.00281, 0.0281, 0.00712, 200.0, 200.0, 200.0, , , , , 1, , , , , , , , , , 
1, 4, '_2', 0.00304, 0.0304, 0.00658, 200.0, 200.0, 200.0, , , , , 1, , , , , , , , , , 
1, 10, '_3', 0.00064, 0.0064, 0.03126, 1000.0, 1000.0, 1000.0, , , , , 1, , , , , , , , , , 
2, 3, '_4', 0.00108, 0.0108, 0.01852, 1200.0, 1200.0, 1200.0, , , , , 1, , , , , , , , , , 
4, 10, '_7', 0.00297, 0.0297, 0.00674, 200.0, 200.0, 200.0, , , , , 1, , , , , , , , , , 
0
3, 4, 0, '6', , , , 0.0, 0.0, , 'B3-4__6', 1, , , , , , , , , ''
0.003274425, 0.03274425, 100.0
230.0, 230.0, 1.0, 426.0, 426.0, 426.0, , , , , , , , 0, , , 
230.0, 230.0
3, 4, 0, '5', , , , 0.0, 0.006113378684807256, , 'B3-4__5', 1, , , , , , , , , ''
0.00297, 0.0297, 100.0
230.0, 230.0, 1.0, 1000.0, 1000.0, 1000.0, , , , , , , , 0, , , 
230.0, 230.0
0
0
0
0
0
0
0
1, '1'
0
0
0
0
0
0
0
Q
